<?xml version="1.0" encoding="UTF-8"?>

<!-- generated on Wed Jun 30 11:23:17 2021 by Eclipse SUMO sumo Version 1.8.0
-->

<configuration xmlns:xsi="http://www.w3.org/2001/XMLSchema-instance" xsi:noNamespaceSchemaLocation="http://sumo.dlr.de/xsd/sumoConfiguration.xsd">

    <input>
        <net-file value="osm.net.xml"/>
        <route-files value="osm.rou.xml"/>
    </input>

</configuration>
